"CIF file generated using JARVIS-Tools package.\n
data_TiCuSiAs\n
_symmetry_space_group_name_H-M  'P4/nmm'\n
_cell_length_a       3.56693\n
_cell_length_b       3.56693\n
_cell_length_c       9.39708\n
_cell_angle_alpha    90\n
_cell_angle_beta     90\n
_cell_angle_gamma    90\n
\n
_symmetry_Int_Tables_number  129\n
_chemical_formula_structural  TiCuSiAs\n
_chemical_formula_sum  Ti2Cu2Si2As2\n
_cell_volume  119.55910965715653\n
_cell_formula_units_Z  2\n
loop_\n
 _symmetry_equiv_pos_site_id\n
 _symmetry_equiv_pos_as_xyz\n
 1  'x, y, z'\n
loop_\n
 _atom_site_type_symbol\n
 _atom_site_label\n
 _atom_site_symmetry_multiplicity\n
 _atom_site_fract_x\n
 _atom_site_fract_y\n
 _atom_site_fract_z\n
 _atom_site_fract_occupancy\n
 As  As1  1  0.75000  0.75000  0.30749  1\n
 As  As2  1  0.25000  0.25000  0.69251  1\n
 Cu  Cu1  1  0.25000  0.75000  0.50000  1\n
 Cu  Cu2  1  0.75000  0.25000  0.50000  1\n
 Si  Si1  1  0.25000  0.75000  0.00000  1\n
 Si  Si2  1  0.75000  0.25000  0.00000  1\n
 Ti  Ti1  1  0.75000  0.75000  0.78494  1\n
 Ti  Ti2  1  0.25000  0.25000  0.21506  1\n"
