CIF file generated using JARVIS-Tools package.
data_Fe2O3
_symmetry_space_group_name_H-M  'Cmcm'
_cell_length_a       5.17955
_cell_length_b       5.17955
_cell_length_c       15.9171
_cell_angle_alpha    90
_cell_angle_beta     90
_cell_angle_gamma    146.108

_symmetry_Int_Tables_number  63
_chemical_formula_structural  Fe2O3
_chemical_formula_sum  Fe8O2
_cell_volume  238.12089631507797
_cell_formula_units_Z  4
loop_
  _symmetry_equiv_pos_site_id
 _symmetry_equiv_pos_as_xyz
 1  'x, y, z'
loop_
 _atom_site_type_symbol
 _atom_site_label
 _atom_site_symmetry_multiplicity
 _atom_site_fract_x
 _atom_site_fract_y
 _atom_site_fract_z
 _atom_site_fract_occupancy
 Fe  Fe1  1  0.63470  0.36530  0.04739  1
 Fe  Fe2  1  0.36530  0.63470  0.95261  1
 Fe  Fe3  1  0.63470  0.36530  0.45261  1
 Fe  Fe4  1  0.36530  0.63470  0.54739  1
 Fe  Fe5  1  0.09621  0.90379  0.64730  1
 Fe  Fe6  1  0.90379  0.09621  0.35270  1
 Fe  Fe7  1  0.90379  0.09621  0.14730  1
 Fe  Fe8  1  0.09621  0.90379  0.85270  1
 O  O1  1  0.72811  0.27189  0.57251  1
 O  O2  1  0.27189  0.72811  0.42749  1
 O  O3  1  0.27189  0.72811  0.07251  1
 O  O4  1  0.72811  0.27189  0.92749  1
 O  O5  1  0.47129  0.52871  0.64748  1
 O  O6  1  0.00000  0.00000  0.00000  1
 O  O7  1  0.52871  0.47129  0.14748  1
 O  O8  1  0.47129  0.52871  0.85252  1
 O  O9  1  0.17944  0.82056  0.75000  1
 O  O10  1  0.00000  0.00000  0.50000  1
 O  O11  1  0.52871  0.47129  0.35252  1
 O  O12  1  0.82056  0.17944  0.25000  1
